FoamFile
{
    version     2.0;
    format      ascii;
    class       volVectorField;
    object      U;
}

dimensions      [0 1 -1 0 0 0 0];

internalField   uniform (1.0000000000000001e-07 0 0);

boundaryField
{
    inlet_drug
    {
        type            fixedValue;
        value           uniform (1.0000000000000001e-07 0 0);
    }
    outlet
    {
        type            zeroGradient;
    }
    walls
    {
        type            noSlip;
    }
    frontAndBack
    {
        type            empty;
    }
}
