FoamFile
{
    version     2.0;
    format      ascii;
    class       dictionary;
    object      transportProperties;
}

// Culture media ≈ water
transportModel  Newtonian;
nu              [0 2 -1 0 0 0 0] 1e-06;  // kinematic viscosity = μ/ρ = 0.001/1000
