FoamFile
{
    version     2.0;
    format      ascii;
    class       dictionary;
    object      controlDict;
}

application     scalarTransportFoam;

startFrom       latestTime;
stopAt          endTime;
endTime         1544.0;

deltaT          1;

writeControl    timeStep;
writeInterval   1544;

purgeWrite      2;

writeFormat     ascii;
writePrecision  8;
writeCompression off;

timeFormat      general;
timePrecision   6;

runTimeModifiable true;
