/*--------------------------------*- C++ -*----------------------------------*\
| =========                 |                                                 |
| \\      /  F ield         | OpenFOAM: The Open Source CFD Toolbox           |
|  \\    /   O peration     | Version:  2406                                  |
|   \\  /    A nd           | Website:  www.openfoam.com                      |
|    \\/     M anipulation  |                                                 |
\*---------------------------------------------------------------------------*/
FoamFile
{
    version     2.0;
    format      ascii;
    arch        "LSB;label=32;scalar=64";
    class       polyBoundaryMesh;
    location    "constant/polyMesh";
    object      boundary;
}
// * * * * * * * * * * * * * * * * * * * * * * * * * * * * * * * * * * * * * //

6
(
    inlet_drug
    {
        type            patch;
        nFaces          10;
        startFace       22543;
    }
    inlet_medium
    {
        type            patch;
        nFaces          10;
        startFace       22553;
    }
    outlet
    {
        type            patch;
        nFaces          57;
        startFace       22563;
    }
    walls
    {
        type            wall;
        inGroups        1(wall);
        nFaces          37;
        startFace       22620;
    }
    floor
    {
        type            wall;
        inGroups        1(wall);
        nFaces          400;
        startFace       22657;
    }
    frontAndBack
    {
        type            empty;
        inGroups        1(empty);
        nFaces          22800;
        startFace       23057;
    }
)

// ************************************************************************* //
